
     RDKit          3D

 15 15  0  0  0  0  0  0  0  0999 V2000
   -0.9648   -0.8295   -0.0486 C   0  0  0  0  0  0  0  0  0  0  0  0
   -1.0751    0.6872   -0.0175 C   0  0  0  0  0  0  0  0  0  0  0  0
    0.3382    1.2012   -0.2869 C   0  0  0  0  0  0  0  0  0  0  0  0
    1.2677   -0.0031   -0.1459 C   0  0  0  0  0  0  0  0  0  0  0  0
    0.4248   -1.0881    0.5066 C   0  0  0  0  0  0  0  0  0  0  0  0
   -1.7478   -1.3156    0.5401 H   0  0  0  0  0  0  0  0  0  0  0  0
   -1.0351   -1.1927   -1.0808 H   0  0  0  0  0  0  0  0  0  0  0  0
   -1.4032    1.0173    0.9754 H   0  0  0  0  0  0  0  0  0  0  0  0
   -1.7983    1.0632   -0.7474 H   0  0  0  0  0  0  0  0  0  0  0  0
    0.4187    1.6302   -1.2915 H   0  0  0  0  0  0  0  0  0  0  0  0
    0.6004    1.9895    0.4270 H   0  0  0  0  0  0  0  0  0  0  0  0
    2.1627    0.2311    0.4383 H   0  0  0  0  0  0  0  0  0  0  0  0
    1.5962   -0.3322   -1.1391 H   0  0  0  0  0  0  0  0  0  0  0  0
    0.7880   -2.0932    0.2740 H   0  0  0  0  0  0  0  0  0  0  0  0
    0.4275   -0.9652    1.5961 H   0  0  0  0  0  0  0  0  0  0  0  0
  1  2  1  0
  2  3  1  0
  3  4  1  0
  4  5  1  0
  5  1  1  0
  1  6  1  0
  1  7  1  0
  2  8  1  0
  2  9  1  0
  3 10  1  0
  3 11  1  0
  4 12  1  0
  4 13  1  0
  5 14  1  0
  5 15  1  0
M  END
>  <Name>  (1) 
cyclopentane

>  <Minimum Energy>  (1) 
1.547528498737258

$$$$
