
     RDKit          3D

 20 19  0  0  0  0  0  0  0  0999 V2000
   -3.1610   -0.1372   -0.2860 C   0  0  0  0  0  0  0  0  0  0  0  0
   -1.7420   -0.5894   -0.5921 C   0  0  0  0  0  0  0  0  0  0  0  0
   -0.7130    0.2290    0.1873 C   0  0  0  0  0  0  0  0  0  0  0  0
    0.7130   -0.2290   -0.1233 C   0  0  0  0  0  0  0  0  0  0  0  0
    1.7420    0.5894    0.6560 C   0  0  0  0  0  0  0  0  0  0  0  0
    3.1610    0.1372    0.3500 C   0  0  0  0  0  0  0  0  0  0  0  0
   -3.8803   -0.7356   -0.8538 H   0  0  0  0  0  0  0  0  0  0  0  0
   -3.3048    0.9137   -0.5566 H   0  0  0  0  0  0  0  0  0  0  0  0
   -3.3884   -0.2525    0.7786 H   0  0  0  0  0  0  0  0  0  0  0  0
   -1.5579   -0.4919   -1.6683 H   0  0  0  0  0  0  0  0  0  0  0  0
   -1.6411   -1.6516   -0.3405 H   0  0  0  0  0  0  0  0  0  0  0  0
   -0.9042    0.1313    1.2629 H   0  0  0  0  0  0  0  0  0  0  0  0
   -0.8210    1.2910   -0.0648 H   0  0  0  0  0  0  0  0  0  0  0  0
    0.8210   -1.2910    0.1288 H   0  0  0  0  0  0  0  0  0  0  0  0
    0.9042   -0.1313   -1.1990 H   0  0  0  0  0  0  0  0  0  0  0  0
    1.6411    1.6516    0.4045 H   0  0  0  0  0  0  0  0  0  0  0  0
    1.5579    0.4919    1.7323 H   0  0  0  0  0  0  0  0  0  0  0  0
    3.3884    0.2525   -0.7146 H   0  0  0  0  0  0  0  0  0  0  0  0
    3.3048   -0.9137    0.6205 H   0  0  0  0  0  0  0  0  0  0  0  0
    3.8803    0.7356    0.9178 H   0  0  0  0  0  0  0  0  0  0  0  0
  1  2  1  0
  2  3  1  0
  3  4  1  0
  4  5  1  0
  5  6  1  0
  1  7  1  0
  1  8  1  0
  1  9  1  0
  2 10  1  0
  2 11  1  0
  3 12  1  0
  3 13  1  0
  4 14  1  0
  4 15  1  0
  5 16  1  0
  5 17  1  0
  6 18  1  0
  6 19  1  0
  6 20  1  0
M  END
>  <Name>  (1) 
n-hexane

>  <Minimum Energy>  (1) 
-5.474436872657505

$$$$
